output/CTMT/Cargas_BT_DO12_CTMT.dss
New "Load.BT_6425_M1" bus1="UC15168.1.4" phases=1 conn=delta model=2 kv=0.22 kw = 909.3168512624057 pf=0.92 status=variable vmaxpu=1.5 vminpu=0.93 daily="RES_2_DO" 
New "Load.BT_6425_M2" bus1="UC15168.1.4" phases=1 conn=delta model=3 kv=0.22 kw = 909.3168512624057 pf=0.92 status=variable vmaxpu=1.5 vminpu=0.93 daily="RES_2_DO"
 
New "Load.BT_7259_M1" bus1="UC15169.1.2.3.4" phases=3 conn=delta model=2 kv=0.38 kw = 663.9456374296931 pf=0.92 status=variable vmaxpu=1.5 vminpu=0.93 daily="RES_2_DO" 
New "Load.BT_7259_M2" bus1="UC15169.1.2.3.4" phases=3 conn=delta model=3 kv=0.38 kw = 663.9456374296931 pf=0.92 status=variable vmaxpu=1.5 vminpu=0.93 daily="RES_2_DO"
 
New "Load.BT_352_M1" bus1="UC15174.1.4" phases=1 conn=delta model=2 kv=0.22 kw = 960.0669912562107 pf=0.92 status=variable vmaxpu=1.5 vminpu=0.93 daily="RES_10_DO" 
New "Load.BT_352_M2" bus1="UC15174.1.4" phases=1 conn=delta model=3 kv=0.22 kw = 960.0669912562107 pf=0.92 status=variable vmaxpu=1.5 vminpu=0.93 daily="RES_10_DO"
 
New "Load.BT_2941_M1" bus1="UC13788.3.4" phases=1 conn=delta model=2 kv=0.22 kw = 294.4454565992552 pf=0.92 status=variable vmaxpu=1.5 vminpu=0.93 daily="RES_2_DO" 
New "Load.BT_2941_M2" bus1="UC13788.3.4" phases=1 conn=delta model=3 kv=0.22 kw = 294.4454565992552 pf=0.92 status=variable vmaxpu=1.5 vminpu=0.93 daily="RES_2_DO"
 
New "Load.BT_714_M1" bus1="UC15175.1.2.3.4" phases=3 conn=delta model=2 kv=0.38 kw = 1047.87941907382 pf=0.92 status=variable vmaxpu=1.5 vminpu=0.93 daily="RES_2_DO" 
New "Load.BT_714_M2" bus1="UC15175.1.2.3.4" phases=3 conn=delta model=3 kv=0.38 kw = 1047.87941907382 pf=0.92 status=variable vmaxpu=1.5 vminpu=0.93 daily="RES_2_DO"
 
New "Load.BT_7479_M1" bus1="ET1_159.2.3.4" phases=2 conn=delta model=2 kv=0.38 kw = 913.5376528264651 pf=0.92 status=variable vmaxpu=1.5 vminpu=0.93 daily="RES_3_DO" 
New "Load.BT_7479_M2" bus1="ET1_159.2.3.4" phases=2 conn=delta model=3 kv=0.38 kw = 913.5376528264651 pf=0.92 status=variable vmaxpu=1.5 vminpu=0.93 daily="RES_3_DO"
 
New "Load.BT_7575_M1" bus1="UC15178.3.4" phases=1 conn=delta model=2 kv=0.22 kw = 765.3908324797034 pf=0.92 status=variable vmaxpu=1.5 vminpu=0.93 daily="RES_1_DO" 
New "Load.BT_7575_M2" bus1="UC15178.3.4" phases=1 conn=delta model=3 kv=0.22 kw = 765.3908324797034 pf=0.92 status=variable vmaxpu=1.5 vminpu=0.93 daily="RES_1_DO"
 
New "Load.BT_6438_M1" bus1="UC15180.1.4" phases=1 conn=delta model=2 kv=0.22 kw = 476.3088268517364 pf=0.92 status=variable vmaxpu=1.5 vminpu=0.93 daily="RES_2_DO" 
New "Load.BT_6438_M2" bus1="UC15180.1.4" phases=1 conn=delta model=3 kv=0.22 kw = 476.3088268517364 pf=0.92 status=variable vmaxpu=1.5 vminpu=0.93 daily="RES_2_DO"
 
New "Load.BT_387_M1" bus1="UC15581.1.2.3.4" phases=3 conn=delta model=2 kv=0.38 kw = 741.4218631635079 pf=0.92 status=variable vmaxpu=1.5 vminpu=0.93 daily="RES_3_DO" 
New "Load.BT_387_M2" bus1="UC15581.1.2.3.4" phases=3 conn=delta model=3 kv=0.38 kw = 741.4218631635079 pf=0.92 status=variable vmaxpu=1.5 vminpu=0.93 daily="RES_3_DO"
 
New "Load.BT_7928_M1" bus1="UC15838.3.4" phases=1 conn=delta model=2 kv=0.22 kw = 48.454920028778865 pf=0.92 status=variable vmaxpu=1.5 vminpu=0.93 daily="RES_7_DO" 
New "Load.BT_7928_M2" bus1="UC15838.3.4" phases=1 conn=delta model=3 kv=0.22 kw = 48.454920028778865 pf=0.92 status=variable vmaxpu=1.5 vminpu=0.93 daily="RES_7_DO"
 
New "Load.BT_8263_M1" bus1="UC14653.1.2.3.4" phases=3 conn=delta model=2 kv=0.38 kw = 423.6696360934331 pf=0.92 status=variable vmaxpu=1.5 vminpu=0.93 daily="RES_3_DO" 
New "Load.BT_8263_M2" bus1="UC14653.1.2.3.4" phases=3 conn=delta model=3 kv=0.38 kw = 423.6696360934331 pf=0.92 status=variable vmaxpu=1.5 vminpu=0.93 daily="RES_3_DO"
 
New "Load.BT_7436_M1" bus1="UC10919.3.4" phases=1 conn=delta model=2 kv=0.22 kw = 653.1573556440427 pf=0.92 status=variable vmaxpu=1.5 vminpu=0.93 daily="RES_3_DO" 
New "Load.BT_7436_M2" bus1="UC10919.3.4" phases=1 conn=delta model=3 kv=0.22 kw = 653.1573556440427 pf=0.92 status=variable vmaxpu=1.5 vminpu=0.93 daily="RES_3_DO"
 
New "Load.BT_2214_M1" bus1="UC16152.1.4" phases=1 conn=delta model=2 kv=0.22 kw = 0.0 pf=0.92 status=variable vmaxpu=1.5 vminpu=0.93 daily="RES_7_DO" 
New "Load.BT_2214_M2" bus1="UC16152.1.4" phases=1 conn=delta model=3 kv=0.22 kw = 0.0 pf=0.92 status=variable vmaxpu=1.5 vminpu=0.93 daily="RES_7_DO"
 
New "Load.BT_2922_M1" bus1="UC2530.1.4" phases=1 conn=delta model=2 kv=0.22 kw = 322.1654524460481 pf=0.92 status=variable vmaxpu=1.5 vminpu=0.93 daily="RES_3_DO" 
New "Load.BT_2922_M2" bus1="UC2530.1.4" phases=1 conn=delta model=3 kv=0.22 kw = 322.1654524460481 pf=0.92 status=variable vmaxpu=1.5 vminpu=0.93 daily="RES_3_DO"
 
New "Load.BT_8626_M1" bus1="UC16140.1.2.3.4" phases=3 conn=delta model=2 kv=0.38 kw = 11258.13793410779 pf=0.92 status=variable vmaxpu=1.5 vminpu=0.93 daily="RES_3_DO" 
New "Load.BT_8626_M2" bus1="UC16140.1.2.3.4" phases=3 conn=delta model=3 kv=0.38 kw = 11258.13793410779 pf=0.92 status=variable vmaxpu=1.5 vminpu=0.93 daily="RES_3_DO"
 
New "Load.BT_288_M1" bus1="UC16156.3.4" phases=1 conn=delta model=2 kv=0.22 kw = 25.381148586503212 pf=0.92 status=variable vmaxpu=1.5 vminpu=0.93 daily="RES_7_DO" 
New "Load.BT_288_M2" bus1="UC16156.3.4" phases=1 conn=delta model=3 kv=0.22 kw = 25.381148586503212 pf=0.92 status=variable vmaxpu=1.5 vminpu=0.93 daily="RES_7_DO"
 
New "Load.BT_715_M1" bus1="UC16132.3.4" phases=1 conn=delta model=2 kv=0.22 kw = 7.695021264741207 pf=0.92 status=variable vmaxpu=1.5 vminpu=0.93 daily="COM_5_DO" 
New "Load.BT_715_M2" bus1="UC16132.3.4" phases=1 conn=delta model=3 kv=0.22 kw = 7.695021264741207 pf=0.92 status=variable vmaxpu=1.5 vminpu=0.93 daily="COM_5_DO"
 
New "Load.BT_1454_M1" bus1="UC8216.3.4" phases=1 conn=delta model=2 kv=0.22 kw = 1632.8933891101067 pf=0.92 status=variable vmaxpu=1.5 vminpu=0.93 daily="RES_3_DO" 
New "Load.BT_1454_M2" bus1="UC8216.3.4" phases=1 conn=delta model=3 kv=0.22 kw = 1632.8933891101067 pf=0.92 status=variable vmaxpu=1.5 vminpu=0.93 daily="RES_3_DO"
 
New "Load.BT_1169_M1" bus1="UC16139.2.4" phases=1 conn=delta model=2 kv=0.22 kw = 789.9673422992138 pf=0.92 status=variable vmaxpu=1.5 vminpu=0.93 daily="RES_3_DO" 
New "Load.BT_1169_M2" bus1="UC16139.2.4" phases=1 conn=delta model=3 kv=0.22 kw = 789.9673422992138 pf=0.92 status=variable vmaxpu=1.5 vminpu=0.93 daily="RES_3_DO"
 
New "Load.BT_2362_M1" bus1="UC16135.3.4" phases=1 conn=delta model=2 kv=0.22 kw = 503.1076928609518 pf=0.92 status=variable vmaxpu=1.5 vminpu=0.93 daily="RES_3_DO" 
New "Load.BT_2362_M2" bus1="UC16135.3.4" phases=1 conn=delta model=3 kv=0.22 kw = 503.1076928609518 pf=0.92 status=variable vmaxpu=1.5 vminpu=0.93 daily="RES_3_DO"
 
New "Load.BT_7328_M1" bus1="UC16138.3.4" phases=1 conn=delta model=2 kv=0.22 kw = 3.4200094509960928 pf=0.92 status=variable vmaxpu=1.5 vminpu=0.93 daily="COM_5_DO" 
New "Load.BT_7328_M2" bus1="UC16138.3.4" phases=1 conn=delta model=3 kv=0.22 kw = 3.4200094509960928 pf=0.92 status=variable vmaxpu=1.5 vminpu=0.93 daily="COM_5_DO"
 
New "Load.BT_1673_M1" bus1="UC8555.3.4" phases=1 conn=delta model=2 kv=0.22 kw = 948.8434558342512 pf=0.92 status=variable vmaxpu=1.5 vminpu=0.93 daily="RES_3_DO" 
New "Load.BT_1673_M2" bus1="UC8555.3.4" phases=1 conn=delta model=3 kv=0.22 kw = 948.8434558342512 pf=0.92 status=variable vmaxpu=1.5 vminpu=0.93 daily="RES_3_DO"
 
New "Load.BT_1124_M1" bus1="UC15362.2.3.4" phases=2 conn=delta model=2 kv=0.38 kw = 0.0 pf=0.92 status=variable vmaxpu=1.5 vminpu=0.93 daily="RES_7_DO" 
New "Load.BT_1124_M2" bus1="UC15362.2.3.4" phases=2 conn=delta model=3 kv=0.38 kw = 0.0 pf=0.92 status=variable vmaxpu=1.5 vminpu=0.93 daily="RES_7_DO"
 
New "Load.BT_84_M1" bus1="UC5102.1.4" phases=1 conn=delta model=2 kv=0.22 kw = 679.6367078998823 pf=0.92 status=variable vmaxpu=1.5 vminpu=0.93 daily="RES_3_DO" 
New "Load.BT_84_M2" bus1="UC5102.1.4" phases=1 conn=delta model=3 kv=0.22 kw = 679.6367078998823 pf=0.92 status=variable vmaxpu=1.5 vminpu=0.93 daily="RES_3_DO"
 
New "Load.BT_1414_M1" bus1="UC7753.1.4" phases=1 conn=delta model=2 kv=0.22 kw = 11.970033078486324 pf=0.92 status=variable vmaxpu=1.5 vminpu=0.93 daily="COM_5_DO" 
New "Load.BT_1414_M2" bus1="UC7753.1.4" phases=1 conn=delta model=3 kv=0.22 kw = 11.970033078486324 pf=0.92 status=variable vmaxpu=1.5 vminpu=0.93 daily="COM_5_DO"
 
New "Load.BT_6437_M1" bus1="UC12439.3.4" phases=1 conn=delta model=2 kv=0.22 kw = 322.1654524460481 pf=0.92 status=variable vmaxpu=1.5 vminpu=0.93 daily="RES_3_DO" 
New "Load.BT_6437_M2" bus1="UC12439.3.4" phases=1 conn=delta model=3 kv=0.22 kw = 322.1654524460481 pf=0.92 status=variable vmaxpu=1.5 vminpu=0.93 daily="RES_3_DO"
 
New "Load.BT_2368_M1" bus1="UC9732.1.4" phases=1 conn=delta model=2 kv=0.22 kw = 95.26176537034726 pf=0.92 status=variable vmaxpu=1.5 vminpu=0.93 daily="RES_2_DO" 
New "Load.BT_2368_M2" bus1="UC9732.1.4" phases=1 conn=delta model=3 kv=0.22 kw = 95.26176537034726 pf=0.92 status=variable vmaxpu=1.5 vminpu=0.93 daily="RES_2_DO"
 
New "Load.BT_491_M1" bus1="UC1855.1.4" phases=1 conn=delta model=2 kv=0.22 kw = 528.2697897810167 pf=0.92 status=variable vmaxpu=1.5 vminpu=0.93 daily="RES_2_DO" 
New "Load.BT_491_M2" bus1="UC1855.1.4" phases=1 conn=delta model=3 kv=0.22 kw = 528.2697897810167 pf=0.92 status=variable vmaxpu=1.5 vminpu=0.93 daily="RES_2_DO"
 
New "Load.BT_1491_M1" bus1="UC1136.2.4" phases=1 conn=delta model=2 kv=0.22 kw = 256.1188630092597 pf=0.92 status=variable vmaxpu=1.5 vminpu=0.93 daily="RES_7_DO" 
New "Load.BT_1491_M2" bus1="UC1136.2.4" phases=1 conn=delta model=3 kv=0.22 kw = 256.1188630092597 pf=0.92 status=variable vmaxpu=1.5 vminpu=0.93 daily="RES_7_DO"
 
New "Load.BT_2368_M1" bus1="UC9732.2.4" phases=1 conn=delta model=2 kv=0.22 kw = 217.75543234123953 pf=0.92 status=variable vmaxpu=1.5 vminpu=0.93 daily="RES_9_DO" 
New "Load.BT_2368_M2" bus1="UC9732.2.4" phases=1 conn=delta model=3 kv=0.22 kw = 217.75543234123953 pf=0.92 status=variable vmaxpu=1.5 vminpu=0.93 daily="RES_9_DO"
 
New "Load.BT_8141_M1" bus1="UC15851.3.4" phases=1 conn=delta model=2 kv=0.22 kw = 92.2950857691026 pf=0.92 status=variable vmaxpu=1.5 vminpu=0.93 daily="RES_7_DO" 
New "Load.BT_8141_M2" bus1="UC15851.3.4" phases=1 conn=delta model=3 kv=0.22 kw = 92.2950857691026 pf=0.92 status=variable vmaxpu=1.5 vminpu=0.93 daily="RES_7_DO"
 
New "Load.BT_7354_M1" bus1="UC15850.3.1.4" phases=2 conn=delta model=2 kv=0.38 kw = 221.6283218628097 pf=0.92 status=variable vmaxpu=1.5 vminpu=0.93 daily="RES_1_DO" 
New "Load.BT_7354_M2" bus1="UC15850.3.1.4" phases=2 conn=delta model=3 kv=0.38 kw = 221.6283218628097 pf=0.92 status=variable vmaxpu=1.5 vminpu=0.93 daily="RES_1_DO"
 
New "Load.BT_918_M1" bus1="UC15688.1.4" phases=1 conn=delta model=2 kv=0.22 kw = 516.3473689888716 pf=0.92 status=variable vmaxpu=1.5 vminpu=0.93 daily="RES_3_DO" 
New "Load.BT_918_M2" bus1="UC15688.1.4" phases=1 conn=delta model=3 kv=0.22 kw = 516.3473689888716 pf=0.92 status=variable vmaxpu=1.5 vminpu=0.93 daily="RES_3_DO"
 
New "Load.BT_2932_M1" bus1="UC10153.2.4" phases=1 conn=delta model=2 kv=0.22 kw = 975.3228080900908 pf=0.92 status=variable vmaxpu=1.5 vminpu=0.93 daily="RES_3_DO" 
New "Load.BT_2932_M2" bus1="UC10153.2.4" phases=1 conn=delta model=3 kv=0.22 kw = 975.3228080900908 pf=0.92 status=variable vmaxpu=1.5 vminpu=0.93 daily="RES_3_DO"
 
New "Load.BT_6949_M1" bus1="UC15497.1.4" phases=1 conn=delta model=2 kv=0.22 kw = 779.414443939205 pf=0.92 status=variable vmaxpu=1.5 vminpu=0.93 daily="RES_2_DO" 
New "Load.BT_6949_M2" bus1="UC15497.1.4" phases=1 conn=delta model=3 kv=0.22 kw = 779.414443939205 pf=0.92 status=variable vmaxpu=1.5 vminpu=0.93 daily="RES_2_DO"
 
New "Load.BT_6949_M1" bus1="UC15497.3.4" phases=1 conn=delta model=2 kv=0.22 kw = 92.37504520760947 pf=0.92 status=variable vmaxpu=1.5 vminpu=0.93 daily="RES_2_DO" 
New "Load.BT_6949_M2" bus1="UC15497.3.4" phases=1 conn=delta model=3 kv=0.22 kw = 92.37504520760947 pf=0.92 status=variable vmaxpu=1.5 vminpu=0.93 daily="RES_2_DO"
 
New "Load.BT_1531_M1" bus1="UC5544.2.4" phases=1 conn=delta model=2 kv=0.22 kw = 591.7776333612481 pf=0.92 status=variable vmaxpu=1.5 vminpu=0.93 daily="RES_2_DO" 
New "Load.BT_1531_M2" bus1="UC5544.2.4" phases=1 conn=delta model=3 kv=0.22 kw = 591.7776333612481 pf=0.92 status=variable vmaxpu=1.5 vminpu=0.93 daily="RES_2_DO"
 
New "Load.BT_293_M1" bus1="UC15499.3.4" phases=1 conn=delta model=2 kv=0.22 kw = 562.9104317338703 pf=0.92 status=variable vmaxpu=1.5 vminpu=0.93 daily="RES_2_DO" 
New "Load.BT_293_M2" bus1="UC15499.3.4" phases=1 conn=delta model=3 kv=0.22 kw = 562.9104317338703 pf=0.92 status=variable vmaxpu=1.5 vminpu=0.93 daily="RES_2_DO"
 
New "Load.BT_1432_M1" bus1="UC8603.1.2.3.4" phases=3 conn=delta model=2 kv=0.38 kw = 749.6136827922995 pf=0.92 status=variable vmaxpu=1.5 vminpu=0.93 daily="COM_1_DO" 
New "Load.BT_1432_M2" bus1="UC8603.1.2.3.4" phases=3 conn=delta model=3 kv=0.38 kw = 749.6136827922995 pf=0.92 status=variable vmaxpu=1.5 vminpu=0.93 daily="COM_1_DO"
 
New "Load.BT_8049_M1" bus1="UC15509.1.2.4" phases=2 conn=delta model=2 kv=0.38 kw = 51.960962929280335 pf=0.92 status=variable vmaxpu=1.5 vminpu=0.93 daily="RES_2_DO" 
New "Load.BT_8049_M2" bus1="UC15509.1.2.4" phases=2 conn=delta model=3 kv=0.38 kw = 51.960962929280335 pf=0.92 status=variable vmaxpu=1.5 vminpu=0.93 daily="RES_2_DO"
 
New "Load.BT_2623_M1" bus1="UC15510.1.2.3.4" phases=3 conn=delta model=2 kv=0.38 kw = 812.3245550881534 pf=0.92 status=variable vmaxpu=1.5 vminpu=0.93 daily="COM_1_DO" 
New "Load.BT_2623_M2" bus1="UC15510.1.2.3.4" phases=3 conn=delta model=3 kv=0.38 kw = 812.3245550881534 pf=0.92 status=variable vmaxpu=1.5 vminpu=0.93 daily="COM_1_DO"
 
New "Load.BT_3013_M1" bus1="UC6671.1.4" phases=1 conn=delta model=2 kv=0.22 kw = 225.1641726935481 pf=0.92 status=variable vmaxpu=1.5 vminpu=0.93 daily="RES_2_DO" 
New "Load.BT_3013_M2" bus1="UC6671.1.4" phases=1 conn=delta model=3 kv=0.22 kw = 225.1641726935481 pf=0.92 status=variable vmaxpu=1.5 vminpu=0.93 daily="RES_2_DO"
 
New "Load.BT_6930_M1" bus1="UC9626.3.4" phases=1 conn=delta model=2 kv=0.22 kw = 444.5549050616207 pf=0.92 status=variable vmaxpu=1.5 vminpu=0.93 daily="RES_2_DO" 
New "Load.BT_6930_M2" bus1="UC9626.3.4" phases=1 conn=delta model=3 kv=0.22 kw = 444.5549050616207 pf=0.92 status=variable vmaxpu=1.5 vminpu=0.93 daily="RES_2_DO"
 
New "Load.BT_2941_M1" bus1="UC13002.3.4" phases=1 conn=delta model=2 kv=0.22 kw = 94.79550463326744 pf=0.92 status=variable vmaxpu=1.5 vminpu=0.93 daily="COM_1_DO" 
New "Load.BT_2941_M2" bus1="UC13002.3.4" phases=1 conn=delta model=3 kv=0.22 kw = 94.79550463326744 pf=0.92 status=variable vmaxpu=1.5 vminpu=0.93 daily="COM_1_DO"
 
New "Load.BT_7308_M1" bus1="UC13331.1.4" phases=1 conn=delta model=2 kv=0.22 kw = 0.0 pf=0.92 status=variable vmaxpu=1.5 vminpu=0.93 daily="RES_2_DO" 
New "Load.BT_7308_M2" bus1="UC13331.1.4" phases=1 conn=delta model=3 kv=0.22 kw = 0.0 pf=0.92 status=variable vmaxpu=1.5 vminpu=0.93 daily="RES_2_DO"
 
New "Load.BT_3010_M1" bus1="UC14890.1.2.3.4" phases=3 conn=delta model=2 kv=0.38 kw = 294.4454565992552 pf=0.92 status=variable vmaxpu=1.5 vminpu=0.93 daily="RES_2_DO" 
New "Load.BT_3010_M2" bus1="UC14890.1.2.3.4" phases=3 conn=delta model=3 kv=0.38 kw = 294.4454565992552 pf=0.92 status=variable vmaxpu=1.5 vminpu=0.93 daily="RES_2_DO"
 
New "Load.BT_3010_M1" bus1="UC14890.1.2.3.4" phases=3 conn=delta model=2 kv=0.38 kw = 329.08609855210875 pf=0.92 status=variable vmaxpu=1.5 vminpu=0.93 daily="RES_2_DO" 
New "Load.BT_3010_M2" bus1="UC14890.1.2.3.4" phases=3 conn=delta model=3 kv=0.38 kw = 329.08609855210875 pf=0.92 status=variable vmaxpu=1.5 vminpu=0.93 daily="RES_2_DO"
 
New "Load.BT_1267_M1" bus1="UC15137.1.2.3.4" phases=3 conn=delta model=2 kv=0.38 kw = 5947.324121453303 pf=0.92 status=variable vmaxpu=1.5 vminpu=0.93 daily="IND_1_DO" 
New "Load.BT_1267_M2" bus1="UC15137.1.2.3.4" phases=3 conn=delta model=3 kv=0.38 kw = 5947.324121453303 pf=0.92 status=variable vmaxpu=1.5 vminpu=0.93 daily="IND_1_DO"
 
New "Load.BT_1115_M1" bus1="UC7113.1.4" phases=1 conn=delta model=2 kv=0.22 kw = 525.3830696182789 pf=0.92 status=variable vmaxpu=1.5 vminpu=0.93 daily="RES_2_DO" 
New "Load.BT_1115_M2" bus1="UC7113.1.4" phases=1 conn=delta model=3 kv=0.22 kw = 525.3830696182789 pf=0.92 status=variable vmaxpu=1.5 vminpu=0.93 daily="RES_2_DO"
 
New "Load.BT_7226_M1" bus1="UC9718.1.4" phases=1 conn=delta model=2 kv=0.22 kw = 225.1641726935481 pf=0.92 status=variable vmaxpu=1.5 vminpu=0.93 daily="RES_2_DO" 
New "Load.BT_7226_M2" bus1="UC9718.1.4" phases=1 conn=delta model=3 kv=0.22 kw = 225.1641726935481 pf=0.92 status=variable vmaxpu=1.5 vminpu=0.93 daily="RES_2_DO"
 
New "Load.BT_7764_M1" bus1="UC10594.3.1.4" phases=2 conn=delta model=2 kv=0.38 kw = 486.90253722845625 pf=0.92 status=variable vmaxpu=1.5 vminpu=0.93 daily="RES_11_DO" 
New "Load.BT_7764_M2" bus1="UC10594.3.1.4" phases=2 conn=delta model=3 kv=0.38 kw = 486.90253722845625 pf=0.92 status=variable vmaxpu=1.5 vminpu=0.93 daily="RES_11_DO"
 
New "Load.BT_1983_M1" bus1="UC15149.1.2.4" phases=2 conn=delta model=2 kv=0.38 kw = 378.1603413186513 pf=0.92 status=variable vmaxpu=1.5 vminpu=0.93 daily="RES_2_DO" 
New "Load.BT_1983_M2" bus1="UC15149.1.2.4" phases=2 conn=delta model=3 kv=0.38 kw = 378.1603413186513 pf=0.92 status=variable vmaxpu=1.5 vminpu=0.93 daily="RES_2_DO"
 
New "Load.BT_6423_M1" bus1="UC13667.1.2.3.4" phases=3 conn=delta model=2 kv=0.38 kw = 332.26230876876934 pf=0.92 status=variable vmaxpu=1.5 vminpu=0.93 daily="RES_7_DO" 
New "Load.BT_6423_M2" bus1="UC13667.1.2.3.4" phases=3 conn=delta model=3 kv=0.38 kw = 332.26230876876934 pf=0.92 status=variable vmaxpu=1.5 vminpu=0.93 daily="RES_7_DO"
 
New "Load.BT_6614_M1" bus1="UC15154.3.4" phases=1 conn=delta model=2 kv=0.22 kw = 713.84936227905 pf=0.92 status=variable vmaxpu=1.5 vminpu=0.93 daily="RES_1_DO" 
New "Load.BT_6614_M2" bus1="UC15154.3.4" phases=1 conn=delta model=3 kv=0.22 kw = 713.84936227905 pf=0.92 status=variable vmaxpu=1.5 vminpu=0.93 daily="RES_1_DO"
 
New "Load.BT_8374_M1" bus1="UC15150.1.2.3.4" phases=3 conn=delta model=2 kv=0.38 kw = 493.6291478281631 pf=0.92 status=variable vmaxpu=1.5 vminpu=0.93 daily="RES_2_DO" 
New "Load.BT_8374_M2" bus1="UC15150.1.2.3.4" phases=3 conn=delta model=3 kv=0.38 kw = 493.6291478281631 pf=0.92 status=variable vmaxpu=1.5 vminpu=0.93 daily="RES_2_DO"
 
New "Load.BT_3034_M1" bus1="UC14783.1.2.3.4" phases=3 conn=delta model=2 kv=0.38 kw = 152.9961686251032 pf=0.92 status=variable vmaxpu=1.5 vminpu=0.93 daily="RES_2_DO" 
New "Load.BT_3034_M2" bus1="UC14783.1.2.3.4" phases=3 conn=delta model=3 kv=0.38 kw = 152.9961686251032 pf=0.92 status=variable vmaxpu=1.5 vminpu=0.93 daily="RES_2_DO"
 
New "Load.BT_1488_M1" bus1="UC10551.2.4" phases=1 conn=delta model=2 kv=0.22 kw = 342.06444071113066 pf=0.92 status=variable vmaxpu=1.5 vminpu=0.93 daily="RES_11_DO" 
New "Load.BT_1488_M2" bus1="UC10551.2.4" phases=1 conn=delta model=3 kv=0.22 kw = 342.06444071113066 pf=0.92 status=variable vmaxpu=1.5 vminpu=0.93 daily="RES_11_DO"
 
New "Load.BT_927_M1" bus1="UC15130.3.4" phases=1 conn=delta model=2 kv=0.22 kw = 32.0846323374136 pf=0.92 status=variable vmaxpu=1.5 vminpu=0.93 daily="COM_1_DO" 
New "Load.BT_927_M2" bus1="UC15130.3.4" phases=1 conn=delta model=3 kv=0.22 kw = 32.0846323374136 pf=0.92 status=variable vmaxpu=1.5 vminpu=0.93 daily="COM_1_DO"
 
New "Load.BT_15_M1" bus1="UC11345.3.4" phases=1 conn=delta model=2 kv=0.22 kw = 86.49131642831622 pf=0.92 status=variable vmaxpu=1.5 vminpu=0.93 daily="RES_8_DO" 
New "Load.BT_15_M2" bus1="UC11345.3.4" phases=1 conn=delta model=3 kv=0.22 kw = 86.49131642831622 pf=0.92 status=variable vmaxpu=1.5 vminpu=0.93 daily="RES_8_DO"
 
New "Load.BT_6637_M1" bus1="UC1871.2.4" phases=1 conn=delta model=2 kv=0.22 kw = 561.2934547225507 pf=0.92 status=variable vmaxpu=1.5 vminpu=0.93 daily="RES_13_DO" 
New "Load.BT_6637_M2" bus1="UC1871.2.4" phases=1 conn=delta model=3 kv=0.22 kw = 561.2934547225507 pf=0.92 status=variable vmaxpu=1.5 vminpu=0.93 daily="RES_13_DO"
 
New "Load.BT_387_M1" bus1="UC15581.1.2.3.4" phases=3 conn=delta model=2 kv=0.38 kw = 750.2483139154544 pf=0.92 status=variable vmaxpu=1.5 vminpu=0.93 daily="RES_3_DO" 
New "Load.BT_387_M2" bus1="UC15581.1.2.3.4" phases=3 conn=delta model=3 kv=0.38 kw = 750.2483139154544 pf=0.92 status=variable vmaxpu=1.5 vminpu=0.93 daily="RES_3_DO"
 
New "Load.BT_8263_M1" bus1="UC14653.1.2.3.4" phases=3 conn=delta model=2 kv=0.38 kw = 1690.265318997759 pf=0.92 status=variable vmaxpu=1.5 vminpu=0.93 daily="RES_3_DO" 
New "Load.BT_8263_M2" bus1="UC14653.1.2.3.4" phases=3 conn=delta model=3 kv=0.38 kw = 1690.265318997759 pf=0.92 status=variable vmaxpu=1.5 vminpu=0.93 daily="RES_3_DO"
 
New "Load.BT_1454_M1" bus1="UC8216.3.4" phases=1 conn=delta model=2 kv=0.22 kw = 507.52091823692507 pf=0.92 status=variable vmaxpu=1.5 vminpu=0.93 daily="RES_3_DO" 
New "Load.BT_1454_M2" bus1="UC8216.3.4" phases=1 conn=delta model=3 kv=0.22 kw = 507.52091823692507 pf=0.92 status=variable vmaxpu=1.5 vminpu=0.93 daily="RES_3_DO"
 
New "Load.BT_1314_M1" bus1="UC16125.1.2.3.4" phases=3 conn=delta model=2 kv=0.38 kw = 50.762297173006424 pf=0.92 status=variable vmaxpu=1.5 vminpu=0.93 daily="RES_7_DO" 
New "Load.BT_1314_M2" bus1="UC16125.1.2.3.4" phases=3 conn=delta model=3 kv=0.38 kw = 50.762297173006424 pf=0.92 status=variable vmaxpu=1.5 vminpu=0.93 daily="RES_7_DO"
 
New "Load.BT_8044_M1" bus1="UC16120.1.2.3.4" phases=3 conn=delta model=2 kv=0.38 kw = 10507.889620192334 pf=0.92 status=variable vmaxpu=1.5 vminpu=0.93 daily="RES_3_DO" 
New "Load.BT_8044_M2" bus1="UC16120.1.2.3.4" phases=3 conn=delta model=3 kv=0.38 kw = 10507.889620192334 pf=0.92 status=variable vmaxpu=1.5 vminpu=0.93 daily="RES_3_DO"
 
New "Load.BT_6919_M1" bus1="UC16117.1.4" phases=1 conn=delta model=2 kv=0.22 kw = 1120.9592454972085 pf=0.92 status=variable vmaxpu=1.5 vminpu=0.93 daily="RES_3_DO" 
New "Load.BT_6919_M2" bus1="UC16117.1.4" phases=1 conn=delta model=3 kv=0.22 kw = 1120.9592454972085 pf=0.92 status=variable vmaxpu=1.5 vminpu=0.93 daily="RES_3_DO"
 
New "Load.BT_1445_M1" bus1="UC2901.2.4" phases=1 conn=delta model=2 kv=0.22 kw = 895.884751322572 pf=0.92 status=variable vmaxpu=1.5 vminpu=0.93 daily="RES_3_DO" 
New "Load.BT_1445_M2" bus1="UC2901.2.4" phases=1 conn=delta model=3 kv=0.22 kw = 895.884751322572 pf=0.92 status=variable vmaxpu=1.5 vminpu=0.93 daily="RES_3_DO"
 
New "Load.BT_3107_M1" bus1="UC8431.2.4" phases=1 conn=delta model=2 kv=0.22 kw = 1054.7608648576095 pf=0.92 status=variable vmaxpu=1.5 vminpu=0.93 daily="RES_3_DO" 
New "Load.BT_3107_M2" bus1="UC8431.2.4" phases=1 conn=delta model=3 kv=0.22 kw = 1054.7608648576095 pf=0.92 status=variable vmaxpu=1.5 vminpu=0.93 daily="RES_3_DO"
 
New "Load.BT_8422_M1" bus1="UC16128.1.4" phases=1 conn=delta model=2 kv=0.22 kw = 18.45901715382052 pf=0.92 status=variable vmaxpu=1.5 vminpu=0.93 daily="RES_7_DO" 
New "Load.BT_8422_M2" bus1="UC16128.1.4" phases=1 conn=delta model=3 kv=0.22 kw = 18.45901715382052 pf=0.92 status=variable vmaxpu=1.5 vminpu=0.93 daily="RES_7_DO"
 
New "Load.BT_8514_M1" bus1="UC15685.1.2.3.4" phases=3 conn=delta model=2 kv=0.38 kw = 306.26239958440254 pf=0.92 status=variable vmaxpu=1.5 vminpu=0.93 daily="COM_1_DO" 
New "Load.BT_8514_M2" bus1="UC15685.1.2.3.4" phases=3 conn=delta model=3 kv=0.38 kw = 306.26239958440254 pf=0.92 status=variable vmaxpu=1.5 vminpu=0.93 daily="COM_1_DO"
 
New "Load.BT_2932_M1" bus1="UC10153.2.4" phases=1 conn=delta model=2 kv=0.22 kw = 349.2931396912733 pf=0.92 status=variable vmaxpu=1.5 vminpu=0.93 daily="RES_2_DO" 
New "Load.BT_2932_M2" bus1="UC10153.2.4" phases=1 conn=delta model=3 kv=0.22 kw = 349.2931396912733 pf=0.92 status=variable vmaxpu=1.5 vminpu=0.93 daily="RES_2_DO"
 
New "Load.BT_7928_M1" bus1="UC15838.2.4" phases=1 conn=delta model=2 kv=0.22 kw = 2.886720162737796 pf=0.92 status=variable vmaxpu=1.5 vminpu=0.93 daily="RES_2_DO" 
New "Load.BT_7928_M2" bus1="UC15838.2.4" phases=1 conn=delta model=3 kv=0.22 kw = 2.886720162737796 pf=0.92 status=variable vmaxpu=1.5 vminpu=0.93 daily="RES_2_DO"
 
New "Load.BT_7378_M1" bus1="UC15839.2.3.4" phases=2 conn=delta model=2 kv=0.38 kw = 22.92162445697258 pf=0.92 status=variable vmaxpu=1.5 vminpu=0.93 daily="RES_9_DO" 
New "Load.BT_7378_M2" bus1="UC15839.2.3.4" phases=2 conn=delta model=3 kv=0.38 kw = 22.92162445697258 pf=0.92 status=variable vmaxpu=1.5 vminpu=0.93 daily="RES_9_DO"
 
New "Load.BT_2395_M1" bus1="UC14029.1.4" phases=1 conn=delta model=2 kv=0.22 kw = 470.53538652626077 pf=0.92 status=variable vmaxpu=1.5 vminpu=0.93 daily="RES_2_DO" 
New "Load.BT_2395_M2" bus1="UC14029.1.4" phases=1 conn=delta model=3 kv=0.22 kw = 470.53538652626077 pf=0.92 status=variable vmaxpu=1.5 vminpu=0.93 daily="RES_2_DO"
 
New "Load.BT_8159_M1" bus1="UC15841.2.4" phases=1 conn=delta model=2 kv=0.22 kw = 14.568948993767703 pf=0.92 status=variable vmaxpu=1.5 vminpu=0.93 daily="RES_4_DO" 
New "Load.BT_8159_M2" bus1="UC15841.2.4" phases=1 conn=delta model=3 kv=0.22 kw = 14.568948993767703 pf=0.92 status=variable vmaxpu=1.5 vminpu=0.93 daily="RES_4_DO"
 
New "Load.BT_1678_M1" bus1="UC358.3.1.4" phases=2 conn=delta model=2 kv=0.38 kw = 920.245591132181 pf=0.92 status=variable vmaxpu=1.5 vminpu=0.93 daily="COM_1_DO" 
New "Load.BT_1678_M2" bus1="UC358.3.1.4" phases=2 conn=delta model=3 kv=0.38 kw = 920.245591132181 pf=0.92 status=variable vmaxpu=1.5 vminpu=0.93 daily="COM_1_DO"
 
New "Load.BT_474_M1" bus1="UC6892.2.4" phases=1 conn=delta model=2 kv=0.22 kw = 196.29697106617013 pf=0.92 status=variable vmaxpu=1.5 vminpu=0.93 daily="RES_2_DO" 
New "Load.BT_474_M2" bus1="UC6892.2.4" phases=1 conn=delta model=3 kv=0.22 kw = 196.29697106617013 pf=0.92 status=variable vmaxpu=1.5 vminpu=0.93 daily="RES_2_DO"
 
New "Load.BT_3034_M1" bus1="UC14783.1.2.3.4" phases=3 conn=delta model=2 kv=0.38 kw = 222.27745253081034 pf=0.92 status=variable vmaxpu=1.5 vminpu=0.93 daily="RES_2_DO" 
New "Load.BT_3034_M2" bus1="UC14783.1.2.3.4" phases=3 conn=delta model=3 kv=0.38 kw = 222.27745253081034 pf=0.92 status=variable vmaxpu=1.5 vminpu=0.93 daily="RES_2_DO"
 
New "Load.BT_7427_M1" bus1="UC15490.2.4" phases=1 conn=delta model=2 kv=0.22 kw = 525.3830696182789 pf=0.92 status=variable vmaxpu=1.5 vminpu=0.93 daily="RES_2_DO" 
New "Load.BT_7427_M2" bus1="UC15490.2.4" phases=1 conn=delta model=3 kv=0.22 kw = 525.3830696182789 pf=0.92 status=variable vmaxpu=1.5 vminpu=0.93 daily="RES_2_DO"
 
New "Load.BT_6397_M1" bus1="UC15492.1.2.3.4" phases=3 conn=delta model=2 kv=0.38 kw = 80.8281645566583 pf=0.92 status=variable vmaxpu=1.5 vminpu=0.93 daily="RES_2_DO" 
New "Load.BT_6397_M2" bus1="UC15492.1.2.3.4" phases=3 conn=delta model=3 kv=0.38 kw = 80.8281645566583 pf=0.92 status=variable vmaxpu=1.5 vminpu=0.93 daily="RES_2_DO"
 
New "Load.BT_855_M1" bus1="UC15495.1.2.3.4" phases=3 conn=delta model=2 kv=0.38 kw = 201.25814829832166 pf=0.92 status=variable vmaxpu=1.5 vminpu=0.93 daily="COM_1_DO" 
New "Load.BT_855_M2" bus1="UC15495.1.2.3.4" phases=3 conn=delta model=3 kv=0.38 kw = 201.25814829832166 pf=0.92 status=variable vmaxpu=1.5 vminpu=0.93 daily="COM_1_DO"
 
New "Load.BT_937_M1" bus1="UC15493.2.4" phases=1 conn=delta model=2 kv=0.22 kw = 453.215065549834 pf=0.92 status=variable vmaxpu=1.5 vminpu=0.93 daily="RES_2_DO" 
New "Load.BT_937_M2" bus1="UC15493.2.4" phases=1 conn=delta model=3 kv=0.22 kw = 453.215065549834 pf=0.92 status=variable vmaxpu=1.5 vminpu=0.93 daily="RES_2_DO"
 
New "Load.BT_7261_M1" bus1="UC15496.3.4" phases=1 conn=delta model=2 kv=0.38 kw = 334.8595388775843 pf=0.92 status=variable vmaxpu=1.5 vminpu=0.93 daily="RES_2_DO" 
New "Load.BT_7261_M2" bus1="UC15496.3.4" phases=1 conn=delta model=3 kv=0.38 kw = 334.8595388775843 pf=0.92 status=variable vmaxpu=1.5 vminpu=0.93 daily="RES_2_DO"
 
New "Load.BT_358_M1" bus1="UC14400.1.4" phases=1 conn=delta model=2 kv=0.22 kw = 236.71105334449928 pf=0.92 status=variable vmaxpu=1.5 vminpu=0.93 daily="RES_2_DO" 
New "Load.BT_358_M2" bus1="UC14400.1.4" phases=1 conn=delta model=3 kv=0.22 kw = 236.71105334449928 pf=0.92 status=variable vmaxpu=1.5 vminpu=0.93 daily="RES_2_DO"
 
New "Load.BT_490_M1" bus1="UC6077.1.4" phases=1 conn=delta model=2 kv=0.22 kw = 372.3869009931757 pf=0.92 status=variable vmaxpu=1.5 vminpu=0.93 daily="RES_2_DO" 
New "Load.BT_490_M2" bus1="UC6077.1.4" phases=1 conn=delta model=3 kv=0.22 kw = 372.3869009931757 pf=0.92 status=variable vmaxpu=1.5 vminpu=0.93 daily="RES_2_DO"
 
New "Load.BT_1862_M1" bus1="UC7595.2.3.4" phases=2 conn=delta model=2 kv=0.38 kw = 662.2172403933112 pf=0.92 status=variable vmaxpu=1.5 vminpu=0.93 daily="RES_7_DO" 
New "Load.BT_1862_M2" bus1="UC7595.2.3.4" phases=2 conn=delta model=3 kv=0.38 kw = 662.2172403933112 pf=0.92 status=variable vmaxpu=1.5 vminpu=0.93 daily="RES_7_DO"
 
New "Load.BT_1488_M1" bus1="UC10551.3.4" phases=1 conn=delta model=2 kv=0.22 kw = 468.41256746028705 pf=0.92 status=variable vmaxpu=1.5 vminpu=0.93 daily="RES_11_DO" 
New "Load.BT_1488_M2" bus1="UC10551.3.4" phases=1 conn=delta model=3 kv=0.22 kw = 468.41256746028705 pf=0.92 status=variable vmaxpu=1.5 vminpu=0.93 daily="RES_11_DO"
 
New "Load.BT_2624_M1" bus1="UC8865.3.4" phases=1 conn=delta model=2 kv=0.22 kw = 483.4904015926921 pf=0.92 status=variable vmaxpu=1.5 vminpu=0.93 daily="RES_13_DO" 
New "Load.BT_2624_M2" bus1="UC8865.3.4" phases=1 conn=delta model=3 kv=0.22 kw = 483.4904015926921 pf=0.92 status=variable vmaxpu=1.5 vminpu=0.93 daily="RES_13_DO"
 
New "Load.BT_1840_M1" bus1="UC5847.2.4" phases=1 conn=delta model=2 kv=0.22 kw = 710.1331600334978 pf=0.92 status=variable vmaxpu=1.5 vminpu=0.93 daily="RES_2_DO" 
New "Load.BT_1840_M2" bus1="UC5847.2.4" phases=1 conn=delta model=3 kv=0.22 kw = 710.1331600334978 pf=0.92 status=variable vmaxpu=1.5 vminpu=0.93 daily="RES_2_DO"
 
New "Load.BT_1452_M1" bus1="UC8287.2.4" phases=1 conn=delta model=2 kv=0.22 kw = 1098.169461366929 pf=0.92 status=variable vmaxpu=1.5 vminpu=0.93 daily="COM_1_DO" 
New "Load.BT_1452_M2" bus1="UC8287.2.4" phases=1 conn=delta model=3 kv=0.22 kw = 1098.169461366929 pf=0.92 status=variable vmaxpu=1.5 vminpu=0.93 daily="COM_1_DO"
 
New "Load.BT_3034_M1" bus1="UC14783.1.2.3.4" phases=3 conn=delta model=2 kv=0.38 kw = 202.0704113916457 pf=0.92 status=variable vmaxpu=1.5 vminpu=0.93 daily="RES_2_DO" 
New "Load.BT_3034_M2" bus1="UC14783.1.2.3.4" phases=3 conn=delta model=3 kv=0.38 kw = 202.0704113916457 pf=0.92 status=variable vmaxpu=1.5 vminpu=0.93 daily="RES_2_DO"
 
New "Load.BT_929_M1" bus1="UC8105.2.4" phases=1 conn=delta model=2 kv=0.22 kw = 58.33569515893382 pf=0.92 status=variable vmaxpu=1.5 vminpu=0.93 daily="COM_1_DO" 
New "Load.BT_929_M2" bus1="UC8105.2.4" phases=1 conn=delta model=3 kv=0.22 kw = 58.33569515893382 pf=0.92 status=variable vmaxpu=1.5 vminpu=0.93 daily="COM_1_DO"
 
New "Load.BT_3034_M1" bus1="UC14783.1.2.3.4" phases=3 conn=delta model=2 kv=0.38 kw = 1534.5959606768647 pf=0.92 status=variable vmaxpu=1.5 vminpu=0.93 daily="RES_4_DO" 
New "Load.BT_3034_M2" bus1="UC14783.1.2.3.4" phases=3 conn=delta model=3 kv=0.38 kw = 1534.5959606768647 pf=0.92 status=variable vmaxpu=1.5 vminpu=0.93 daily="RES_4_DO"
 
New "Load.BT_8197_M1" bus1="UC11184.3.4" phases=1 conn=delta model=2 kv=0.22 kw = 369.79939536338446 pf=0.92 status=variable vmaxpu=1.5 vminpu=0.93 daily="RES_11_DO" 
New "Load.BT_8197_M2" bus1="UC11184.3.4" phases=1 conn=delta model=3 kv=0.22 kw = 369.79939536338446 pf=0.92 status=variable vmaxpu=1.5 vminpu=0.93 daily="RES_11_DO"
 
New "Load.BT_3010_M1" bus1="UC14890.1.2.3.4" phases=3 conn=delta model=2 kv=0.38 kw = 417.6352631051892 pf=0.92 status=variable vmaxpu=1.5 vminpu=0.93 daily="RES_7_DO" 
New "Load.BT_3010_M2" bus1="UC14890.1.2.3.4" phases=3 conn=delta model=3 kv=0.38 kw = 417.6352631051892 pf=0.92 status=variable vmaxpu=1.5 vminpu=0.93 daily="RES_7_DO"
 
New "Load.BT_377_M1" bus1="UC15109.1.4" phases=1 conn=delta model=2 kv=0.22 kw = 360.79029140457396 pf=0.92 status=variable vmaxpu=1.5 vminpu=0.93 daily="RES_1_DO" 
New "Load.BT_377_M2" bus1="UC15109.1.4" phases=1 conn=delta model=3 kv=0.22 kw = 360.79029140457396 pf=0.92 status=variable vmaxpu=1.5 vminpu=0.93 daily="RES_1_DO"
 
New "Load.BT_1750_M1" bus1="UC10549.2.4" phases=1 conn=delta model=2 kv=0.22 kw = 5.833569515893382 pf=0.92 status=variable vmaxpu=1.5 vminpu=0.93 daily="COM_1_DO" 
New "Load.BT_1750_M2" bus1="UC10549.2.4" phases=1 conn=delta model=3 kv=0.22 kw = 5.833569515893382 pf=0.92 status=variable vmaxpu=1.5 vminpu=0.93 daily="COM_1_DO"
 
New "Load.BT_639_M1" bus1="UC15090.3.4" phases=1 conn=delta model=2 kv=0.22 kw = 635.5044541401496 pf=0.92 status=variable vmaxpu=1.5 vminpu=0.93 daily="RES_3_DO" 
New "Load.BT_639_M2" bus1="UC15090.3.4" phases=1 conn=delta model=3 kv=0.22 kw = 635.5044541401496 pf=0.92 status=variable vmaxpu=1.5 vminpu=0.93 daily="RES_3_DO"
 
New "Load.BT_2214_M1" bus1="UC11074.2.4" phases=1 conn=delta model=2 kv=0.22 kw = 406.0167345895401 pf=0.92 status=variable vmaxpu=1.5 vminpu=0.93 daily="RES_3_DO" 
New "Load.BT_2214_M2" bus1="UC11074.2.4" phases=1 conn=delta model=3 kv=0.22 kw = 406.0167345895401 pf=0.92 status=variable vmaxpu=1.5 vminpu=0.93 daily="RES_3_DO"
 
New "Load.BT_8198_M1" bus1="UC15673.2.3.4" phases=2 conn=delta model=2 kv=0.38 kw = 1306.3147112880854 pf=0.92 status=variable vmaxpu=1.5 vminpu=0.93 daily="RES_3_DO" 
New "Load.BT_8198_M2" bus1="UC15673.2.3.4" phases=2 conn=delta model=3 kv=0.38 kw = 1306.3147112880854 pf=0.92 status=variable vmaxpu=1.5 vminpu=0.93 daily="RES_3_DO"
 
New "Load.BT_6795_M1" bus1="UC14821.3.4" phases=1 conn=delta model=2 kv=0.22 kw = 428.08286146940634 pf=0.92 status=variable vmaxpu=1.5 vminpu=0.93 daily="RES_3_DO" 
New "Load.BT_6795_M2" bus1="UC14821.3.4" phases=1 conn=delta model=3 kv=0.22 kw = 428.08286146940634 pf=0.92 status=variable vmaxpu=1.5 vminpu=0.93 daily="RES_3_DO"
 
New "Load.BT_768_M1" bus1="UC12804.1.4" phases=1 conn=delta model=2 kv=0.22 kw = 335.4051285739679 pf=0.92 status=variable vmaxpu=1.5 vminpu=0.93 daily="RES_3_DO" 
New "Load.BT_768_M2" bus1="UC12804.1.4" phases=1 conn=delta model=3 kv=0.22 kw = 335.4051285739679 pf=0.92 status=variable vmaxpu=1.5 vminpu=0.93 daily="RES_3_DO"
 
New "Load.BT_539_M1" bus1="UC11814.2.4" phases=1 conn=delta model=2 kv=0.22 kw = 454.9745723772427 pf=0.92 status=variable vmaxpu=1.5 vminpu=0.93 daily="RES_6_DO" 
New "Load.BT_539_M2" bus1="UC11814.2.4" phases=1 conn=delta model=3 kv=0.22 kw = 454.9745723772427 pf=0.92 status=variable vmaxpu=1.5 vminpu=0.93 daily="RES_6_DO"
 
New "Load.BT_6846_M1" bus1="UC15821.1.2.3.4" phases=3 conn=delta model=2 kv=0.38 kw = 1096.9536618403627 pf=0.92 status=variable vmaxpu=1.5 vminpu=0.93 daily="RES_2_DO" 
New "Load.BT_6846_M2" bus1="UC15821.1.2.3.4" phases=3 conn=delta model=3 kv=0.38 kw = 1096.9536618403627 pf=0.92 status=variable vmaxpu=1.5 vminpu=0.93 daily="RES_2_DO"
 
New "Load.BT_826_M1" bus1="UC7495.2.4" phases=1 conn=delta model=2 kv=0.22 kw = 657.7349629169788 pf=0.92 status=variable vmaxpu=1.5 vminpu=0.93 daily="COM_1_DO" 
New "Load.BT_826_M2" bus1="UC7495.2.4" phases=1 conn=delta model=3 kv=0.22 kw = 657.7349629169788 pf=0.92 status=variable vmaxpu=1.5 vminpu=0.93 daily="COM_1_DO"
 
New "Load.BT_84_M1" bus1="UC5102.3.4" phases=1 conn=delta model=2 kv=0.22 kw = 417.37336804854493 pf=0.92 status=variable vmaxpu=1.5 vminpu=0.93 daily="RES_6_DO" 
New "Load.BT_84_M2" bus1="UC5102.3.4" phases=1 conn=delta model=3 kv=0.22 kw = 417.37336804854493 pf=0.92 status=variable vmaxpu=1.5 vminpu=0.93 daily="RES_6_DO"
 
New "Load.BT_2347_M1" bus1="UC1753.3.4" phases=1 conn=delta model=2 kv=0.22 kw = 1206.6490280243988 pf=0.92 status=variable vmaxpu=1.5 vminpu=0.93 daily="RES_2_DO" 
New "Load.BT_2347_M2" bus1="UC1753.3.4" phases=1 conn=delta model=3 kv=0.22 kw = 1206.6490280243988 pf=0.92 status=variable vmaxpu=1.5 vminpu=0.93 daily="RES_2_DO"
 
New "Load.BT_8197_M1" bus1="UC11184.3.4" phases=1 conn=delta model=2 kv=0.22 kw = 194.83380788426695 pf=0.92 status=variable vmaxpu=1.5 vminpu=0.93 daily="RES_9_DO" 
New "Load.BT_8197_M2" bus1="UC11184.3.4" phases=1 conn=delta model=3 kv=0.22 kw = 194.83380788426695 pf=0.92 status=variable vmaxpu=1.5 vminpu=0.93 daily="RES_9_DO"
 
New "Load.BT_2623_M1" bus1="UC15510.1.2.3.4" phases=3 conn=delta model=2 kv=0.38 kw = 9.432471654165045 pf=0.92 status=variable vmaxpu=1.5 vminpu=0.93 daily="COM_12_DO" 
New "Load.BT_2623_M2" bus1="UC15510.1.2.3.4" phases=3 conn=delta model=3 kv=0.38 kw = 9.432471654165045 pf=0.92 status=variable vmaxpu=1.5 vminpu=0.93 daily="COM_12_DO"
 
New "Load.BT_8426_M1" bus1="UC15793.1.2.3.4" phases=3 conn=delta model=2 kv=0.38 kw = 266.88580535212225 pf=0.92 status=variable vmaxpu=1.5 vminpu=0.93 daily="COM_1_DO" 
New "Load.BT_8426_M2" bus1="UC15793.1.2.3.4" phases=3 conn=delta model=3 kv=0.38 kw = 266.88580535212225 pf=0.92 status=variable vmaxpu=1.5 vminpu=0.93 daily="COM_1_DO"
 
New "Load.BT_7702_M1" bus1="UC15796.3.4" phases=1 conn=delta model=2 kv=0.22 kw = 17.32032097642678 pf=0.92 status=variable vmaxpu=1.5 vminpu=0.93 daily="RES_2_DO" 
New "Load.BT_7702_M2" bus1="UC15796.3.4" phases=1 conn=delta model=3 kv=0.22 kw = 17.32032097642678 pf=0.92 status=variable vmaxpu=1.5 vminpu=0.93 daily="RES_2_DO"
 
New "Load.BT_236_M1" bus1="UC15798.1.2.3.4" phases=3 conn=delta model=2 kv=0.38 kw = 29.82993768895894 pf=0.92 status=variable vmaxpu=1.5 vminpu=0.93 daily="RES_12_DO" 
New "Load.BT_236_M2" bus1="UC15798.1.2.3.4" phases=3 conn=delta model=3 kv=0.38 kw = 29.82993768895894 pf=0.92 status=variable vmaxpu=1.5 vminpu=0.93 daily="RES_12_DO"
 
New "Load.BT_146_M1" bus1="UC10578.1.4" phases=1 conn=delta model=2 kv=0.22 kw = 401.4836230955963 pf=0.92 status=variable vmaxpu=1.5 vminpu=0.93 daily="RES_7_DO" 
New "Load.BT_146_M2" bus1="UC10578.1.4" phases=1 conn=delta model=3 kv=0.22 kw = 401.4836230955963 pf=0.92 status=variable vmaxpu=1.5 vminpu=0.93 daily="RES_7_DO"
 
New "Load.BT_3019_M1" bus1="UC9738.1.4" phases=1 conn=delta model=2 kv=0.22 kw = 631.7002327221221 pf=0.92 status=variable vmaxpu=1.5 vminpu=0.93 daily="RES_6_DO" 
New "Load.BT_3019_M2" bus1="UC9738.1.4" phases=1 conn=delta model=3 kv=0.22 kw = 631.7002327221221 pf=0.92 status=variable vmaxpu=1.5 vminpu=0.93 daily="RES_6_DO"
 
New "Load.BT_2092_M1" bus1="UC6242.2.4" phases=1 conn=delta model=2 kv=0.22 kw = 152.9961686251032 pf=0.92 status=variable vmaxpu=1.5 vminpu=0.93 daily="RES_2_DO" 
New "Load.BT_2092_M2" bus1="UC6242.2.4" phases=1 conn=delta model=3 kv=0.22 kw = 152.9961686251032 pf=0.92 status=variable vmaxpu=1.5 vminpu=0.93 daily="RES_2_DO"
 
New "Load.BT_539_M1" bus1="UC11814.2.4" phases=1 conn=delta model=2 kv=0.22 kw = 183.37299565578064 pf=0.92 status=variable vmaxpu=1.5 vminpu=0.93 daily="RES_9_DO" 
New "Load.BT_539_M2" bus1="UC11814.2.4" phases=1 conn=delta model=3 kv=0.22 kw = 183.37299565578064 pf=0.92 status=variable vmaxpu=1.5 vminpu=0.93 daily="RES_9_DO"
 
New "Load.BT_1424_M1" bus1="UC6619.3.4" phases=1 conn=delta model=2 kv=0.22 kw = 199.18369122890795 pf=0.92 status=variable vmaxpu=1.5 vminpu=0.93 daily="RES_2_DO" 
New "Load.BT_1424_M2" bus1="UC6619.3.4" phases=1 conn=delta model=3 kv=0.22 kw = 199.18369122890795 pf=0.92 status=variable vmaxpu=1.5 vminpu=0.93 daily="RES_2_DO"
 
New "Load.BT_6443_M1" bus1="UC15805.1.4" phases=1 conn=delta model=2 kv=0.22 kw = 2.886720162737796 pf=0.92 status=variable vmaxpu=1.5 vminpu=0.93 daily="RES_2_DO" 
New "Load.BT_6443_M2" bus1="UC15805.1.4" phases=1 conn=delta model=3 kv=0.22 kw = 2.886720162737796 pf=0.92 status=variable vmaxpu=1.5 vminpu=0.93 daily="RES_2_DO"
 
New "Load.BT_8141_M1" bus1="UC15807.1.2.3.4" phases=3 conn=delta model=2 kv=0.38 kw = 20188.525702128023 pf=0.92 status=variable vmaxpu=1.5 vminpu=0.93 daily="COM_1_DO" 
New "Load.BT_8141_M2" bus1="UC15807.1.2.3.4" phases=3 conn=delta model=3 kv=0.38 kw = 20188.525702128023 pf=0.92 status=variable vmaxpu=1.5 vminpu=0.93 daily="COM_1_DO"
 
New "Load.BT_296_M1" bus1="UC14335.2.4" phases=1 conn=delta model=2 kv=0.22 kw = 340.63297920305996 pf=0.92 status=variable vmaxpu=1.5 vminpu=0.93 daily="RES_2_DO" 
New "Load.BT_296_M2" bus1="UC14335.2.4" phases=1 conn=delta model=3 kv=0.22 kw = 340.63297920305996 pf=0.92 status=variable vmaxpu=1.5 vminpu=0.93 daily="RES_2_DO"
 
New "Load.BT_121_M1" bus1="UC12650.2.3.4" phases=2 conn=delta model=2 kv=0.38 kw = 619.413987233669 pf=0.92 status=variable vmaxpu=1.5 vminpu=0.93 daily="RES_11_DO" 
New "Load.BT_121_M2" bus1="UC12650.2.3.4" phases=2 conn=delta model=3 kv=0.38 kw = 619.413987233669 pf=0.92 status=variable vmaxpu=1.5 vminpu=0.93 daily="RES_11_DO"
 
New "Load.BT_12_M1" bus1="UC10383.2.4" phases=1 conn=delta model=2 kv=0.22 kw = 484.2193166535457 pf=0.92 status=variable vmaxpu=1.5 vminpu=0.93 daily="RES_9_DO" 
New "Load.BT_12_M2" bus1="UC10383.2.4" phases=1 conn=delta model=3 kv=0.22 kw = 484.2193166535457 pf=0.92 status=variable vmaxpu=1.5 vminpu=0.93 daily="RES_9_DO"
 
New "Load.BT_8263_M1" bus1="UC14653.1.2.3.4" phases=3 conn=delta model=2 kv=0.38 kw = 713.0198801962356 pf=0.92 status=variable vmaxpu=1.5 vminpu=0.93 daily="RES_2_DO" 
New "Load.BT_8263_M2" bus1="UC14653.1.2.3.4" phases=3 conn=delta model=3 kv=0.38 kw = 713.0198801962356 pf=0.92 status=variable vmaxpu=1.5 vminpu=0.93 daily="RES_2_DO"
 
New "Load.BT_2343_M1" bus1="UC5977.2.4" phases=1 conn=delta model=2 kv=0.22 kw = 138.56256781141423 pf=0.92 status=variable vmaxpu=1.5 vminpu=0.93 daily="RES_2_DO" 
New "Load.BT_2343_M2" bus1="UC5977.2.4" phases=1 conn=delta model=3 kv=0.22 kw = 138.56256781141423 pf=0.92 status=variable vmaxpu=1.5 vminpu=0.93 daily="RES_2_DO"
 
New "Load.BT_3034_M1" bus1="UC14783.1.2.3.4" phases=3 conn=delta model=2 kv=0.38 kw = 280.01185578556624 pf=0.92 status=variable vmaxpu=1.5 vminpu=0.93 daily="RES_2_DO" 
New "Load.BT_3034_M2" bus1="UC14783.1.2.3.4" phases=3 conn=delta model=3 kv=0.38 kw = 280.01185578556624 pf=0.92 status=variable vmaxpu=1.5 vminpu=0.93 daily="RES_2_DO"
 
New "Load.BT_684_M1" bus1="UC6236.1.2.3.4" phases=3 conn=delta model=2 kv=0.38 kw = 312.0959691002959 pf=0.92 status=variable vmaxpu=1.5 vminpu=0.93 daily="COM_1_DO" 
New "Load.BT_684_M2" bus1="UC6236.1.2.3.4" phases=3 conn=delta model=3 kv=0.38 kw = 312.0959691002959 pf=0.92 status=variable vmaxpu=1.5 vminpu=0.93 daily="COM_1_DO"
 
New "Load.BT_7327_M1" bus1="UC13253.1.2.4" phases=2 conn=delta model=2 kv=0.38 kw = 248.2579339954505 pf=0.92 status=variable vmaxpu=1.5 vminpu=0.93 daily="RES_2_DO" 
New "Load.BT_7327_M2" bus1="UC13253.1.2.4" phases=2 conn=delta model=3 kv=0.38 kw = 248.2579339954505 pf=0.92 status=variable vmaxpu=1.5 vminpu=0.93 daily="RES_2_DO"
 
New "Load.BT_1829_M1" bus1="UC15079.3.4" phases=1 conn=delta model=2 kv=0.22 kw = 477.65755234437165 pf=0.92 status=variable vmaxpu=1.5 vminpu=0.93 daily="RES_11_DO" 
New "Load.BT_1829_M2" bus1="UC15079.3.4" phases=1 conn=delta model=3 kv=0.22 kw = 477.65755234437165 pf=0.92 status=variable vmaxpu=1.5 vminpu=0.93 daily="RES_11_DO"
 
New "Load.BT_1959_M1" bus1="UC2860.2.4" phases=1 conn=delta model=2 kv=0.22 kw = 329.08609855210875 pf=0.92 status=variable vmaxpu=1.5 vminpu=0.93 daily="RES_2_DO" 
New "Load.BT_1959_M2" bus1="UC2860.2.4" phases=1 conn=delta model=3 kv=0.22 kw = 329.08609855210875 pf=0.92 status=variable vmaxpu=1.5 vminpu=0.93 daily="RES_2_DO"
 
New "Load.BT_3034_M1" bus1="UC14783.1.2.3.4" phases=3 conn=delta model=2 kv=0.38 kw = 110.7943801883366 pf=0.92 status=variable vmaxpu=1.5 vminpu=0.93 daily="RES_5_DO" 
New "Load.BT_3034_M2" bus1="UC14783.1.2.3.4" phases=3 conn=delta model=3 kv=0.38 kw = 110.7943801883366 pf=0.92 status=variable vmaxpu=1.5 vminpu=0.93 daily="RES_5_DO"
 
New "Load.BT_901_M1" bus1="UC5377.3.4" phases=1 conn=delta model=2 kv=0.22 kw = 17.100047254980463 pf=0.92 status=variable vmaxpu=1.5 vminpu=0.93 daily="COM_5_DO" 
New "Load.BT_901_M2" bus1="UC5377.3.4" phases=1 conn=delta model=3 kv=0.22 kw = 17.100047254980463 pf=0.92 status=variable vmaxpu=1.5 vminpu=0.93 daily="COM_5_DO"
 
New "Load.BT_1124_M1" bus1="UC15362.3.1.4" phases=2 conn=delta model=2 kv=0.38 kw = 661.9838063959893 pf=0.92 status=variable vmaxpu=1.5 vminpu=0.93 daily="RES_3_DO" 
New "Load.BT_1124_M2" bus1="UC15362.3.1.4" phases=2 conn=delta model=3 kv=0.38 kw = 661.9838063959893 pf=0.92 status=variable vmaxpu=1.5 vminpu=0.93 daily="RES_3_DO"
 
New "Load.BT_1124_M1" bus1="UC15362.1.2.4" phases=2 conn=delta model=2 kv=0.38 kw = 1138.6121470011014 pf=0.92 status=variable vmaxpu=1.5 vminpu=0.93 daily="RES_3_DO" 
New "Load.BT_1124_M2" bus1="UC15362.1.2.4" phases=2 conn=delta model=3 kv=0.38 kw = 1138.6121470011014 pf=0.92 status=variable vmaxpu=1.5 vminpu=0.93 daily="RES_3_DO"
 
New "Load.BT_2344_M1" bus1="UC2835.3.4" phases=1 conn=delta model=2 kv=0.22 kw = 353.0580300778609 pf=0.92 status=variable vmaxpu=1.5 vminpu=0.93 daily="RES_3_DO" 
New "Load.BT_2344_M2" bus1="UC2835.3.4" phases=1 conn=delta model=3 kv=0.22 kw = 353.0580300778609 pf=0.92 status=variable vmaxpu=1.5 vminpu=0.93 daily="RES_3_DO"
 
New "Load.BT_7439_M1" bus1="UC16096.2.4" phases=1 conn=delta model=2 kv=0.22 kw = 4.61475428845513 pf=0.92 status=variable vmaxpu=1.5 vminpu=0.93 daily="RES_7_DO" 
New "Load.BT_7439_M2" bus1="UC16096.2.4" phases=1 conn=delta model=3 kv=0.22 kw = 4.61475428845513 pf=0.92 status=variable vmaxpu=1.5 vminpu=0.93 daily="RES_7_DO"
 
New "Load.BT_6954_M1" bus1="UC16099.3.4" phases=1 conn=delta model=2 kv=0.22 kw = 0.0 pf=0.92 status=variable vmaxpu=1.5 vminpu=0.93 daily="COM_1_DO" 
New "Load.BT_6954_M2" bus1="UC16099.3.4" phases=1 conn=delta model=3 kv=0.22 kw = 0.0 pf=0.92 status=variable vmaxpu=1.5 vminpu=0.93 daily="COM_1_DO"
 
New "Load.BT_1112_M1" bus1="UC8981.3.4" phases=1 conn=delta model=2 kv=0.22 kw = 106.13934863446798 pf=0.92 status=variable vmaxpu=1.5 vminpu=0.93 daily="RES_7_DO" 
New "Load.BT_1112_M2" bus1="UC8981.3.4" phases=1 conn=delta model=3 kv=0.22 kw = 106.13934863446798 pf=0.92 status=variable vmaxpu=1.5 vminpu=0.93 daily="RES_7_DO"
 
New "Load.BT_2626_M1" bus1="UC16100.3.4" phases=1 conn=delta model=2 kv=0.22 kw = 335.4051285739679 pf=0.92 status=variable vmaxpu=1.5 vminpu=0.93 daily="RES_3_DO" 
New "Load.BT_2626_M2" bus1="UC16100.3.4" phases=1 conn=delta model=3 kv=0.22 kw = 335.4051285739679 pf=0.92 status=variable vmaxpu=1.5 vminpu=0.93 daily="RES_3_DO"
 
New "Load.BT_1516_M1" bus1="UC16103.3.4" phases=1 conn=delta model=2 kv=0.22 kw = 556.066397372631 pf=0.92 status=variable vmaxpu=1.5 vminpu=0.93 daily="RES_3_DO" 
New "Load.BT_1516_M2" bus1="UC16103.3.4" phases=1 conn=delta model=3 kv=0.22 kw = 556.066397372631 pf=0.92 status=variable vmaxpu=1.5 vminpu=0.93 daily="RES_3_DO"
 
New "Load.BT_2623_M1" bus1="UC15510.1.2.4" phases=2 conn=delta model=2 kv=0.38 kw = 759.0747646674009 pf=0.92 status=variable vmaxpu=1.5 vminpu=0.93 daily="RES_3_DO" 
New "Load.BT_2623_M2" bus1="UC15510.1.2.4" phases=2 conn=delta model=3 kv=0.38 kw = 759.0747646674009 pf=0.92 status=variable vmaxpu=1.5 vminpu=0.93 daily="RES_3_DO"
 
New "Load.BT_1124_M1" bus1="UC15362.1.2.3.4" phases=3 conn=delta model=2 kv=0.38 kw = 0.0 pf=0.92 status=variable vmaxpu=1.5 vminpu=0.93 daily="COM_5_DO" 
New "Load.BT_1124_M2" bus1="UC15362.1.2.3.4" phases=3 conn=delta model=3 kv=0.38 kw = 0.0 pf=0.92 status=variable vmaxpu=1.5 vminpu=0.93 daily="COM_5_DO"
 
New "Load.BT_2214_M1" bus1="UC11074.3.4" phases=1 conn=delta model=2 kv=0.22 kw = 21.375059068725577 pf=0.92 status=variable vmaxpu=1.5 vminpu=0.93 daily="COM_5_DO" 
New "Load.BT_2214_M2" bus1="UC11074.3.4" phases=1 conn=delta model=3 kv=0.22 kw = 21.375059068725577 pf=0.92 status=variable vmaxpu=1.5 vminpu=0.93 daily="COM_5_DO"
 
New "Load.BT_8544_M1" bus1="UC16080.2.4" phases=1 conn=delta model=2 kv=0.22 kw = 94.60246291333016 pf=0.92 status=variable vmaxpu=1.5 vminpu=0.93 daily="RES_7_DO" 
New "Load.BT_8544_M2" bus1="UC16080.2.4" phases=1 conn=delta model=3 kv=0.22 kw = 94.60246291333016 pf=0.92 status=variable vmaxpu=1.5 vminpu=0.93 daily="RES_7_DO"
 
New "Load.BT_387_M1" bus1="UC15581.1.2.3.4" phases=3 conn=delta model=2 kv=0.38 kw = 313.3390016941015 pf=0.92 status=variable vmaxpu=1.5 vminpu=0.93 daily="RES_3_DO" 
New "Load.BT_387_M2" bus1="UC15581.1.2.3.4" phases=3 conn=delta model=3 kv=0.38 kw = 313.3390016941015 pf=0.92 status=variable vmaxpu=1.5 vminpu=0.93 daily="RES_3_DO"
 
New "Load.BT_1113_M1" bus1="UC6951.3.4" phases=1 conn=delta model=2 kv=0.22 kw = 9.22950857691026 pf=0.92 status=variable vmaxpu=1.5 vminpu=0.93 daily="RES_7_DO" 
New "Load.BT_1113_M2" bus1="UC6951.3.4" phases=1 conn=delta model=3 kv=0.22 kw = 9.22950857691026 pf=0.92 status=variable vmaxpu=1.5 vminpu=0.93 daily="RES_7_DO"
 
New "Load.BT_539_M1" bus1="UC11814.1.2.4" phases=2 conn=delta model=2 kv=0.38 kw = 904.7112020745185 pf=0.92 status=variable vmaxpu=1.5 vminpu=0.93 daily="RES_3_DO" 
New "Load.BT_539_M2" bus1="UC11814.1.2.4" phases=2 conn=delta model=3 kv=0.38 kw = 904.7112020745185 pf=0.92 status=variable vmaxpu=1.5 vminpu=0.93 daily="RES_3_DO"
 
New "Load.BT_1858_M1" bus1="UC5368.1.2.3.4" phases=3 conn=delta model=2 kv=0.38 kw = 2440.5136329132138 pf=0.92 status=variable vmaxpu=1.5 vminpu=0.93 daily="RES_3_DO" 
New "Load.BT_1858_M2" bus1="UC5368.1.2.3.4" phases=3 conn=delta model=3 kv=0.38 kw = 2440.5136329132138 pf=0.92 status=variable vmaxpu=1.5 vminpu=0.93 daily="RES_3_DO"
 
New "Load.BT_539_M1" bus1="UC11814.3.1.4" phases=2 conn=delta model=2 kv=0.38 kw = 83.06557719219234 pf=0.92 status=variable vmaxpu=1.5 vminpu=0.93 daily="RES_7_DO" 
New "Load.BT_539_M2" bus1="UC11814.3.1.4" phases=2 conn=delta model=3 kv=0.38 kw = 83.06557719219234 pf=0.92 status=variable vmaxpu=1.5 vminpu=0.93 daily="RES_7_DO"
 
New "Load.BT_7327_M1" bus1="UC13253.1.2.4" phases=2 conn=delta model=2 kv=0.38 kw = 591.372200380417 pf=0.92 status=variable vmaxpu=1.5 vminpu=0.93 daily="RES_3_DO" 
New "Load.BT_7327_M2" bus1="UC13253.1.2.4" phases=2 conn=delta model=3 kv=0.38 kw = 591.372200380417 pf=0.92 status=variable vmaxpu=1.5 vminpu=0.93 daily="RES_3_DO"
 
New "Load.BT_2623_M1" bus1="UC15510.3.1.4" phases=2 conn=delta model=2 kv=0.38 kw = 2.307377144227565 pf=0.92 status=variable vmaxpu=1.5 vminpu=0.93 daily="RES_7_DO" 
New "Load.BT_2623_M2" bus1="UC15510.3.1.4" phases=2 conn=delta model=3 kv=0.38 kw = 2.307377144227565 pf=0.92 status=variable vmaxpu=1.5 vminpu=0.93 daily="RES_7_DO"
 
New "Load.BT_2215_M1" bus1="UC12303.2.4" phases=1 conn=delta model=2 kv=0.22 kw = 108.44672577869555 pf=0.92 status=variable vmaxpu=1.5 vminpu=0.93 daily="RES_7_DO" 
New "Load.BT_2215_M2" bus1="UC12303.2.4" phases=1 conn=delta model=3 kv=0.22 kw = 108.44672577869555 pf=0.92 status=variable vmaxpu=1.5 vminpu=0.93 daily="RES_7_DO"
 
New "Load.BT_358_M1" bus1="UC12262.1.4" phases=1 conn=delta model=2 kv=0.22 kw = 4.61475428845513 pf=0.92 status=variable vmaxpu=1.5 vminpu=0.93 daily="RES_7_DO" 
New "Load.BT_358_M2" bus1="UC12262.1.4" phases=1 conn=delta model=3 kv=0.22 kw = 4.61475428845513 pf=0.92 status=variable vmaxpu=1.5 vminpu=0.93 daily="RES_7_DO"
 
New "Load.BT_555_M1" bus1="UC15769.2.4" phases=1 conn=delta model=2 kv=0.22 kw = 444.5549050616207 pf=0.92 status=variable vmaxpu=1.5 vminpu=0.93 daily="RES_2_DO" 
New "Load.BT_555_M2" bus1="UC15769.2.4" phases=1 conn=delta model=3 kv=0.22 kw = 444.5549050616207 pf=0.92 status=variable vmaxpu=1.5 vminpu=0.93 daily="RES_2_DO"
 
New "Load.BT_1430_M1" bus1="UC9154.3.4" phases=1 conn=delta model=2 kv=0.22 kw = 1036.9169814500485 pf=0.92 status=variable vmaxpu=1.5 vminpu=0.93 daily="COM_1_DO" 
New "Load.BT_1430_M2" bus1="UC9154.3.4" phases=1 conn=delta model=3 kv=0.22 kw = 1036.9169814500485 pf=0.92 status=variable vmaxpu=1.5 vminpu=0.93 daily="COM_1_DO"
 
New "Load.BT_2920_M1" bus1="UC15771.1.2.3.4" phases=3 conn=delta model=2 kv=0.38 kw = 1061.7096518925953 pf=0.92 status=variable vmaxpu=1.5 vminpu=0.93 daily="COM_1_DO" 
New "Load.BT_2920_M2" bus1="UC15771.1.2.3.4" phases=3 conn=delta model=3 kv=0.38 kw = 1061.7096518925953 pf=0.92 status=variable vmaxpu=1.5 vminpu=0.93 daily="COM_1_DO"
 
New "Load.BT_7655_M1" bus1="UC15774.1.4" phases=1 conn=delta model=2 kv=0.22 kw = 404.1408227832914 pf=0.92 status=variable vmaxpu=1.5 vminpu=0.93 daily="RES_2_DO" 
New "Load.BT_7655_M2" bus1="UC15774.1.4" phases=1 conn=delta model=3 kv=0.22 kw = 404.1408227832914 pf=0.92 status=variable vmaxpu=1.5 vminpu=0.93 daily="RES_2_DO"
 
New "Load.BT_1880_M1" bus1="UC5019.1.4" phases=1 conn=delta model=2 kv=0.22 kw = 458.9885058753096 pf=0.92 status=variable vmaxpu=1.5 vminpu=0.93 daily="RES_2_DO" 
New "Load.BT_1880_M2" bus1="UC5019.1.4" phases=1 conn=delta model=3 kv=0.22 kw = 458.9885058753096 pf=0.92 status=variable vmaxpu=1.5 vminpu=0.93 daily="RES_2_DO"
 
New "Load.BT_1209_M1" bus1="UC15445.3.4" phases=1 conn=delta model=2 kv=0.22 kw = 311.76577757568197 pf=0.92 status=variable vmaxpu=1.5 vminpu=0.93 daily="RES_2_DO" 
New "Load.BT_1209_M2" bus1="UC15445.3.4" phases=1 conn=delta model=3 kv=0.22 kw = 311.76577757568197 pf=0.92 status=variable vmaxpu=1.5 vminpu=0.93 daily="RES_2_DO"
 
New "Load.BT_2215_M1" bus1="UC7160.1.4" phases=1 conn=delta model=2 kv=0.22 kw = 220.21724922497515 pf=0.92 status=variable vmaxpu=1.5 vminpu=0.93 daily="COM_1_DO" 
New "Load.BT_2215_M2" bus1="UC7160.1.4" phases=1 conn=delta model=3 kv=0.22 kw = 220.21724922497515 pf=0.92 status=variable vmaxpu=1.5 vminpu=0.93 daily="COM_1_DO"
 
New "Load.BT_628_M1" bus1="UC7914.1.4" phases=1 conn=delta model=2 kv=0.22 kw = 59.79408753790717 pf=0.92 status=variable vmaxpu=1.5 vminpu=0.93 daily="COM_1_DO" 
New "Load.BT_628_M2" bus1="UC7914.1.4" phases=1 conn=delta model=3 kv=0.22 kw = 59.79408753790717 pf=0.92 status=variable vmaxpu=1.5 vminpu=0.93 daily="COM_1_DO"
 
New "Load.BT_1234_M1" bus1="UC15448.1.4" phases=1 conn=delta model=2 kv=0.22 kw = 0.0 pf=0.92 status=variable vmaxpu=1.5 vminpu=0.93 daily="RES_2_DO" 
New "Load.BT_1234_M2" bus1="UC15448.1.4" phases=1 conn=delta model=3 kv=0.22 kw = 0.0 pf=0.92 status=variable vmaxpu=1.5 vminpu=0.93 daily="RES_2_DO"
 
New "Load.BT_1380_M1" bus1="UC10064.3.4" phases=1 conn=delta model=2 kv=0.22 kw = 412.9426581557793 pf=0.92 status=variable vmaxpu=1.5 vminpu=0.93 daily="RES_11_DO" 
New "Load.BT_1380_M2" bus1="UC10064.3.4" phases=1 conn=delta model=3 kv=0.22 kw = 412.9426581557793 pf=0.92 status=variable vmaxpu=1.5 vminpu=0.93 daily="RES_11_DO"
 
New "Load.BT_785_M1" bus1="UC9638.3.4" phases=1 conn=delta model=2 kv=0.22 kw = 690.6557006887559 pf=0.92 status=variable vmaxpu=1.5 vminpu=0.93 daily="RES_1_DO" 
New "Load.BT_785_M2" bus1="UC9638.3.4" phases=1 conn=delta model=3 kv=0.22 kw = 690.6557006887559 pf=0.92 status=variable vmaxpu=1.5 vminpu=0.93 daily="RES_1_DO"
 
New "Load.BT_7701_M1" bus1="UC15452.1.2.3.4" phases=3 conn=delta model=2 kv=0.38 kw = 1033.445818260131 pf=0.92 status=variable vmaxpu=1.5 vminpu=0.93 daily="RES_2_DO" 
New "Load.BT_7701_M2" bus1="UC15452.1.2.3.4" phases=3 conn=delta model=3 kv=0.38 kw = 1033.445818260131 pf=0.92 status=variable vmaxpu=1.5 vminpu=0.93 daily="RES_2_DO"
 
New "Load.BT_387_M1" bus1="UC15581.1.4" phases=1 conn=delta model=2 kv=0.22 kw = 441.3225375973261 pf=0.92 status=variable vmaxpu=1.5 vminpu=0.93 daily="RES_3_DO" 
New "Load.BT_387_M2" bus1="UC15581.1.4" phases=1 conn=delta model=3 kv=0.22 kw = 441.3225375973261 pf=0.92 status=variable vmaxpu=1.5 vminpu=0.93 daily="RES_3_DO"
 
New "Load.BT_3034_M1" bus1="UC14783.1.2.3.4" phases=3 conn=delta model=2 kv=0.38 kw = 498.69446748497853 pf=0.92 status=variable vmaxpu=1.5 vminpu=0.93 daily="RES_3_DO" 
New "Load.BT_3034_M2" bus1="UC14783.1.2.3.4" phases=3 conn=delta model=3 kv=0.38 kw = 498.69446748497853 pf=0.92 status=variable vmaxpu=1.5 vminpu=0.93 daily="RES_3_DO"
 
New "Load.BT_1124_M1" bus1="UC8867.1.4" phases=1 conn=delta model=2 kv=0.22 kw = 1085.6534424894223 pf=0.92 status=variable vmaxpu=1.5 vminpu=0.93 daily="RES_3_DO" 
New "Load.BT_1124_M2" bus1="UC8867.1.4" phases=1 conn=delta model=3 kv=0.22 kw = 1085.6534424894223 pf=0.92 status=variable vmaxpu=1.5 vminpu=0.93 daily="RES_3_DO"
 
New "Load.BT_121_M1" bus1="UC12650.2.3.4" phases=2 conn=delta model=2 kv=0.38 kw = 156.9016458074744 pf=0.92 status=variable vmaxpu=1.5 vminpu=0.93 daily="RES_7_DO" 
New "Load.BT_121_M2" bus1="UC12650.2.3.4" phases=2 conn=delta model=3 kv=0.38 kw = 156.9016458074744 pf=0.92 status=variable vmaxpu=1.5 vminpu=0.93 daily="RES_7_DO"
 
New "Load.BT_239_M1" bus1="UC16074.1.2.3.4" phases=3 conn=delta model=2 kv=0.38 kw = 17772.058589044325 pf=0.92 status=variable vmaxpu=1.5 vminpu=0.93 daily="RES_3_DO" 
New "Load.BT_239_M2" bus1="UC16074.1.2.3.4" phases=3 conn=delta model=3 kv=0.38 kw = 17772.058589044325 pf=0.92 status=variable vmaxpu=1.5 vminpu=0.93 daily="RES_3_DO"
 
New "Load.BT_8152_M1" bus1="UC16078.1.2.4" phases=2 conn=delta model=2 kv=0.38 kw = 103.83197149024042 pf=0.92 status=variable vmaxpu=1.5 vminpu=0.93 daily="RES_7_DO" 
New "Load.BT_8152_M2" bus1="UC16078.1.2.4" phases=2 conn=delta model=3 kv=0.38 kw = 103.83197149024042 pf=0.92 status=variable vmaxpu=1.5 vminpu=0.93 daily="RES_7_DO"
 
New "Load.BT_8398_M1" bus1="UC15580.2.4" phases=1 conn=delta model=2 kv=0.22 kw = 251.14465415818825 pf=0.92 status=variable vmaxpu=1.5 vminpu=0.93 daily="RES_2_DO" 
New "Load.BT_8398_M2" bus1="UC15580.2.4" phases=1 conn=delta model=3 kv=0.22 kw = 251.14465415818825 pf=0.92 status=variable vmaxpu=1.5 vminpu=0.93 daily="RES_2_DO"
 
New "Load.BT_2466_M1" bus1="UC15707.1.4" phases=1 conn=delta model=2 kv=0.22 kw = 204.95713155438352 pf=0.92 status=variable vmaxpu=1.5 vminpu=0.93 daily="RES_2_DO" 
New "Load.BT_2466_M2" bus1="UC15707.1.4" phases=1 conn=delta model=3 kv=0.22 kw = 204.95713155438352 pf=0.92 status=variable vmaxpu=1.5 vminpu=0.93 daily="RES_2_DO"
 
New "Load.BT_2214_M1" bus1="UC11074.1.4" phases=1 conn=delta model=2 kv=0.22 kw = 0.0 pf=0.92 status=variable vmaxpu=1.5 vminpu=0.93 daily="COM_1_DO" 
New "Load.BT_2214_M2" bus1="UC11074.1.4" phases=1 conn=delta model=3 kv=0.22 kw = 0.0 pf=0.92 status=variable vmaxpu=1.5 vminpu=0.93 daily="COM_1_DO"
 
New "Load.BT_1112_M1" bus1="UC8981.2.4" phases=1 conn=delta model=2 kv=0.22 kw = 513.8361889673276 pf=0.92 status=variable vmaxpu=1.5 vminpu=0.93 daily="RES_2_DO" 
New "Load.BT_1112_M2" bus1="UC8981.2.4" phases=1 conn=delta model=3 kv=0.22 kw = 513.8361889673276 pf=0.92 status=variable vmaxpu=1.5 vminpu=0.93 daily="RES_2_DO"
 
New "Load.BT_6942_M1" bus1="UC15761.1.2.3.4" phases=3 conn=delta model=2 kv=0.38 kw = 782.3011641019428 pf=0.92 status=variable vmaxpu=1.5 vminpu=0.93 daily="RES_2_DO" 
New "Load.BT_6942_M2" bus1="UC15761.1.2.3.4" phases=3 conn=delta model=3 kv=0.38 kw = 782.3011641019428 pf=0.92 status=variable vmaxpu=1.5 vminpu=0.93 daily="RES_2_DO"
 
New "Load.BT_2085_M1" bus1="UC15760.1.2.3.4" phases=3 conn=delta model=2 kv=0.38 kw = 546.8971421150045 pf=0.92 status=variable vmaxpu=1.5 vminpu=0.93 daily="COM_1_DO" 
New "Load.BT_2085_M2" bus1="UC15760.1.2.3.4" phases=3 conn=delta model=3 kv=0.38 kw = 546.8971421150045 pf=0.92 status=variable vmaxpu=1.5 vminpu=0.93 daily="COM_1_DO"
 
New "Load.BT_702_M1" bus1="UC8051.1.2.4" phases=2 conn=delta model=2 kv=0.38 kw = 617.7581148258884 pf=0.92 status=variable vmaxpu=1.5 vminpu=0.93 daily="RES_2_DO" 
New "Load.BT_702_M2" bus1="UC8051.1.2.4" phases=2 conn=delta model=3 kv=0.38 kw = 617.7581148258884 pf=0.92 status=variable vmaxpu=1.5 vminpu=0.93 daily="RES_2_DO"
 
New "Load.BT_7425_M1" bus1="UC15763.3.4" phases=1 conn=delta model=2 kv=0.22 kw = 0.0 pf=0.92 status=variable vmaxpu=1.5 vminpu=0.93 daily="RES_2_DO" 
New "Load.BT_7425_M2" bus1="UC15763.3.4" phases=1 conn=delta model=3 kv=0.22 kw = 0.0 pf=0.92 status=variable vmaxpu=1.5 vminpu=0.93 daily="RES_2_DO"
 
New "Load.BT_854_M1" bus1="UC13201.2.4" phases=1 conn=delta model=2 kv=0.22 kw = 360.84002034222453 pf=0.92 status=variable vmaxpu=1.5 vminpu=0.93 daily="RES_2_DO" 
New "Load.BT_854_M2" bus1="UC13201.2.4" phases=1 conn=delta model=3 kv=0.22 kw = 360.84002034222453 pf=0.92 status=variable vmaxpu=1.5 vminpu=0.93 daily="RES_2_DO"
 
New "Load.BT_854_M1" bus1="UC13201.3.4" phases=1 conn=delta model=2 kv=0.22 kw = 704.3597197080223 pf=0.92 status=variable vmaxpu=1.5 vminpu=0.93 daily="RES_2_DO" 
New "Load.BT_854_M2" bus1="UC13201.3.4" phases=1 conn=delta model=3 kv=0.22 kw = 704.3597197080223 pf=0.92 status=variable vmaxpu=1.5 vminpu=0.93 daily="RES_2_DO"
 
New "Load.BT_3034_M1" bus1="UC14783.1.2.3.4" phases=3 conn=delta model=2 kv=0.38 kw = 514.6374918807101 pf=0.92 status=variable vmaxpu=1.5 vminpu=0.93 daily="RES_11_DO" 
...